data/LV9_258bus/Groundings.dss
new reactor.tx_busgrounding_B342 phases=1 bus1=B342.4 bus2=B342.0 r=0.3 x=0.0
new reactor.loadbusgrounding_B2249 phases=1 bus1=B2249.4 bus2=B2249.0 r=10.0 x=0.0
new reactor.loadbusgrounding_B191 phases=1 bus1=B191.4 bus2=B191.0 r=10.0 x=0.0
new reactor.loadbusgrounding_B335 phases=1 bus1=B335.4 bus2=B335.0 r=10.0 x=0.0
new reactor.loadbusgrounding_B1632 phases=1 bus1=B1632.4 bus2=B1632.0 r=10.0 x=0.0
new reactor.loadbusgrounding_B1378 phases=1 bus1=B1378.4 bus2=B1378.0 r=10.0 x=0.0
new reactor.loadbusgrounding_B2321 phases=1 bus1=B2321.4 bus2=B2321.0 r=10.0 x=0.0
new reactor.loadbusgrounding_B1557 phases=1 bus1=B1557.4 bus2=B1557.0 r=10.0 x=0.0
new reactor.loadbusgrounding_B1590 phases=1 bus1=B1590.4 bus2=B1590.0 r=10.0 x=0.0
new reactor.loadbusgrounding_B3376 phases=1 bus1=B3376.4 bus2=B3376.0 r=10.0 x=0.0
new reactor.loadbusgrounding_B2174 phases=1 bus1=B2174.4 bus2=B2174.0 r=10.0 x=0.0
new reactor.loadbusgrounding_B1572 phases=1 bus1=B1572.4 bus2=B1572.0 r=10.0 x=0.0
new reactor.loadbusgrounding_B30 phases=1 bus1=B30.4 bus2=B30.0 r=10.0 x=0.0
new reactor.loadbusgrounding_B1988 phases=1 bus1=B1988.4 bus2=B1988.0 r=10.0 x=0.0
new reactor.loadbusgrounding_B1628 phases=1 bus1=B1628.4 bus2=B1628.0 r=10.0 x=0.0
new reactor.loadbusgrounding_B2417 phases=1 bus1=B2417.4 bus2=B2417.0 r=10.0 x=0.0
new reactor.loadbusgrounding_B2737 phases=1 bus1=B2737.4 bus2=B2737.0 r=10.0 x=0.0
new reactor.loadbusgrounding_B2040 phases=1 bus1=B2040.4 bus2=B2040.0 r=10.0 x=0.0
new reactor.loadbusgrounding_B508 phases=1 bus1=B508.4 bus2=B508.0 r=10.0 x=0.0
new reactor.loadbusgrounding_B364 phases=1 bus1=B364.4 bus2=B364.0 r=10.0 x=0.0
new reactor.loadbusgrounding_B2977 phases=1 bus1=B2977.4 bus2=B2977.0 r=10.0 x=0.0
new reactor.loadbusgrounding_B1097 phases=1 bus1=B1097.4 bus2=B1097.0 r=10.0 x=0.0
new reactor.loadbusgrounding_B2901 phases=1 bus1=B2901.4 bus2=B2901.0 r=10.0 x=0.0
new reactor.loadbusgrounding_B625 phases=1 bus1=B625.4 bus2=B625.0 r=10.0 x=0.0
new reactor.loadbusgrounding_B2547 phases=1 bus1=B2547.4 bus2=B2547.0 r=10.0 x=0.0
new reactor.loadbusgrounding_B2209 phases=1 bus1=B2209.4 bus2=B2209.0 r=10.0 x=0.0
new reactor.loadbusgrounding_B768 phases=1 bus1=B768.4 bus2=B768.0 r=10.0 x=0.0
new reactor.loadbusgrounding_B298 phases=1 bus1=B298.4 bus2=B298.0 r=10.0 x=0.0
new reactor.loadbusgrounding_B94 phases=1 bus1=B94.4 bus2=B94.0 r=10.0 x=0.0
new reactor.loadbusgrounding_B1591 phases=1 bus1=B1591.4 bus2=B1591.0 r=10.0 x=0.0
new reactor.loadbusgrounding_B1362 phases=1 bus1=B1362.4 bus2=B1362.0 r=10.0 x=0.0
new reactor.loadbusgrounding_B1666 phases=1 bus1=B1666.4 bus2=B1666.0 r=10.0 x=0.0
new reactor.loadbusgrounding_B1890 phases=1 bus1=B1890.4 bus2=B1890.0 r=10.0 x=0.0
new reactor.loadbusgrounding_B3070 phases=1 bus1=B3070.4 bus2=B3070.0 r=10.0 x=0.0
new reactor.loadbusgrounding_B847 phases=1 bus1=B847.4 bus2=B847.0 r=10.0 x=0.0
new reactor.loadbusgrounding_B2815 phases=1 bus1=B2815.4 bus2=B2815.0 r=10.0 x=0.0
new reactor.loadbusgrounding_B1801 phases=1 bus1=B1801.4 bus2=B1801.0 r=10.0 x=0.0
new reactor.loadbusgrounding_B1423 phases=1 bus1=B1423.4 bus2=B1423.0 r=10.0 x=0.0
new reactor.loadbusgrounding_B840 phases=1 bus1=B840.4 bus2=B840.0 r=10.0 x=0.0
new reactor.loadbusgrounding_B3362 phases=1 bus1=B3362.4 bus2=B3362.0 r=10.0 x=0.0
new reactor.loadbusgrounding_B2397 phases=1 bus1=B2397.4 bus2=B2397.0 r=10.0 x=0.0
new reactor.loadbusgrounding_B1852 phases=1 bus1=B1852.4 bus2=B1852.0 r=10.0 x=0.0
new reactor.loadbusgrounding_B2266 phases=1 bus1=B2266.4 bus2=B2266.0 r=10.0 x=0.0
new reactor.loadbusgrounding_B3051 phases=1 bus1=B3051.4 bus2=B3051.0 r=10.0 x=0.0
new reactor.loadbusgrounding_B578 phases=1 bus1=B578.4 bus2=B578.0 r=10.0 x=0.0
new reactor.loadbusgrounding_B1790 phases=1 bus1=B1790.4 bus2=B1790.0 r=10.0 x=0.0
new reactor.loadbusgrounding_B1416 phases=1 bus1=B1416.4 bus2=B1416.0 r=10.0 x=0.0
new reactor.loadbusgrounding_B1505 phases=1 bus1=B1505.4 bus2=B1505.0 r=10.0 x=0.0
new reactor.loadbusgrounding_B1475 phases=1 bus1=B1475.4 bus2=B1475.0 r=10.0 x=0.0
new reactor.loadbusgrounding_B2530 phases=1 bus1=B2530.4 bus2=B2530.0 r=10.0 x=0.0
new reactor.loadbusgrounding_B2810 phases=1 bus1=B2810.4 bus2=B2810.0 r=10.0 x=0.0
new reactor.loadbusgrounding_B1725 phases=1 bus1=B1725.4 bus2=B1725.0 r=10.0 x=0.0
new reactor.loadbusgrounding_B89 phases=1 bus1=B89.4 bus2=B89.0 r=10.0 x=0.0
new reactor.loadbusgrounding_B833 phases=1 bus1=B833.4 bus2=B833.0 r=10.0 x=0.0
new reactor.loadbusgrounding_B534 phases=1 bus1=B534.4 bus2=B534.0 r=10.0 x=0.0
new reactor.loadbusgrounding_B807 phases=1 bus1=B807.4 bus2=B807.0 r=10.0 x=0.0
new reactor.loadbusgrounding_B695 phases=1 bus1=B695.4 bus2=B695.0 r=10.0 x=0.0
new reactor.loadbusgrounding_B1544 phases=1 bus1=B1544.4 bus2=B1544.0 r=10.0 x=0.0
new reactor.loadbusgrounding_B3378 phases=1 bus1=B3378.4 bus2=B3378.0 r=10.0 x=0.0
new reactor.loadbusgrounding_B2006 phases=1 bus1=B2006.4 bus2=B2006.0 r=10.0 x=0.0
new reactor.loadbusgrounding_B1407 phases=1 bus1=B1407.4 bus2=B1407.0 r=10.0 x=0.0
new reactor.loadbusgrounding_B1872 phases=1 bus1=B1872.4 bus2=B1872.0 r=10.0 x=0.0
new reactor.loadbusgrounding_B257 phases=1 bus1=B257.4 bus2=B257.0 r=10.0 x=0.0
new reactor.loadbusgrounding_B3153 phases=1 bus1=B3153.4 bus2=B3153.0 r=10.0 x=0.0
new reactor.loadbusgrounding_B1865 phases=1 bus1=B1865.4 bus2=B1865.0 r=10.0 x=0.0
new reactor.loadbusgrounding_B466 phases=1 bus1=B466.4 bus2=B466.0 r=10.0 x=0.0
new reactor.loadbusgrounding_B2647 phases=1 bus1=B2647.4 bus2=B2647.0 r=10.0 x=0.0
new reactor.loadbusgrounding_B2510 phases=1 bus1=B2510.4 bus2=B2510.0 r=10.0 x=0.0
new reactor.loadbusgrounding_B2283 phases=1 bus1=B2283.4 bus2=B2283.0 r=10.0 x=0.0
new reactor.loadbusgrounding_B1237 phases=1 bus1=B1237.4 bus2=B1237.0 r=10.0 x=0.0
new reactor.loadbusgrounding_B2789 phases=1 bus1=B2789.4 bus2=B2789.0 r=10.0 x=0.0
new reactor.loadbusgrounding_B1502 phases=1 bus1=B1502.4 bus2=B1502.0 r=10.0 x=0.0
new reactor.loadbusgrounding_B810 phases=1 bus1=B810.4 bus2=B810.0 r=10.0 x=0.0
new reactor.loadbusgrounding_B2564 phases=1 bus1=B2564.4 bus2=B2564.0 r=10.0 x=0.0
new reactor.loadbusgrounding_B2003 phases=1 bus1=B2003.4 bus2=B2003.0 r=10.0 x=0.0
new reactor.loadbusgrounding_B1718 phases=1 bus1=B1718.4 bus2=B1718.0 r=10.0 x=0.0
new reactor.loadbusgrounding_B2779 phases=1 bus1=B2779.4 bus2=B2779.0 r=10.0 x=0.0
new reactor.loadbusgrounding_B1723 phases=1 bus1=B1723.4 bus2=B1723.0 r=10.0 x=0.0
new reactor.loadbusgrounding_B1095 phases=1 bus1=B1095.4 bus2=B1095.0 r=10.0 x=0.0
new reactor.loadbusgrounding_B2868 phases=1 bus1=B2868.4 bus2=B2868.0 r=10.0 x=0.0
new reactor.loadbusgrounding_B2872 phases=1 bus1=B2872.4 bus2=B2872.0 r=10.0 x=0.0
new reactor.loadbusgrounding_B1873 phases=1 bus1=B1873.4 bus2=B1873.0 r=10.0 x=0.0
new reactor.loadbusgrounding_B1905 phases=1 bus1=B1905.4 bus2=B1905.0 r=10.0 x=0.0
new reactor.loadbusgrounding_B798 phases=1 bus1=B798.4 bus2=B798.0 r=10.0 x=0.0
new reactor.loadbusgrounding_B1085 phases=1 bus1=B1085.4 bus2=B1085.0 r=10.0 x=0.0
new reactor.loadbusgrounding_B541 phases=1 bus1=B541.4 bus2=B541.0 r=10.0 x=0.0
new reactor.loadbusgrounding_B787 phases=1 bus1=B787.4 bus2=B787.0 r=10.0 x=0.0
new reactor.loadbusgrounding_B1017 phases=1 bus1=B1017.4 bus2=B1017.0 r=10.0 x=0.0
new reactor.loadbusgrounding_B1824 phases=1 bus1=B1824.4 bus2=B1824.0 r=10.0 x=0.0
new reactor.loadbusgrounding_B1015 phases=1 bus1=B1015.4 bus2=B1015.0 r=10.0 x=0.0
new reactor.loadbusgrounding_B792 phases=1 bus1=B792.4 bus2=B792.0 r=10.0 x=0.0
new reactor.loadbusgrounding_B3240 phases=1 bus1=B3240.4 bus2=B3240.0 r=10.0 x=0.0
new reactor.loadbusgrounding_B2349 phases=1 bus1=B2349.4 bus2=B2349.0 r=10.0 x=0.0
new reactor.loadbusgrounding_B1842 phases=1 bus1=B1842.4 bus2=B1842.0 r=10.0 x=0.0
new reactor.loadbusgrounding_B2723 phases=1 bus1=B2723.4 bus2=B2723.0 r=10.0 x=0.0
new reactor.loadbusgrounding_B2891 phases=1 bus1=B2891.4 bus2=B2891.0 r=10.0 x=0.0
new reactor.loadbusgrounding_B2228 phases=1 bus1=B2228.4 bus2=B2228.0 r=10.0 x=0.0
new reactor.loadbusgrounding_B1139 phases=1 bus1=B1139.4 bus2=B1139.0 r=10.0 x=0.0
new reactor.loadbusgrounding_B907 phases=1 bus1=B907.4 bus2=B907.0 r=10.0 x=0.0
new reactor.loadbusgrounding_B2333 phases=1 bus1=B2333.4 bus2=B2333.0 r=10.0 x=0.0
new reactor.loadbusgrounding_B326 phases=1 bus1=B326.4 bus2=B326.0 r=10.0 x=0.0
new reactor.loadbusgrounding_B773 phases=1 bus1=B773.4 bus2=B773.0 r=10.0 x=0.0
new reactor.loadbusgrounding_B3005 phases=1 bus1=B3005.4 bus2=B3005.0 r=10.0 x=0.0
new reactor.loadbusgrounding_B2717 phases=1 bus1=B2717.4 bus2=B2717.0 r=10.0 x=0.0
new reactor.loadbusgrounding_B1998 phases=1 bus1=B1998.4 bus2=B1998.0 r=10.0 x=0.0
new reactor.loadbusgrounding_B1200 phases=1 bus1=B1200.4 bus2=B1200.0 r=10.0 x=0.0
new reactor.loadbusgrounding_B2764 phases=1 bus1=B2764.4 bus2=B2764.0 r=10.0 x=0.0
new reactor.loadbusgrounding_B435 phases=1 bus1=B435.4 bus2=B435.0 r=10.0 x=0.0
new reactor.loadbusgrounding_B2015 phases=1 bus1=B2015.4 bus2=B2015.0 r=10.0 x=0.0
new reactor.loadbusgrounding_B1244 phases=1 bus1=B1244.4 bus2=B1244.0 r=10.0 x=0.0
new reactor.loadbusgrounding_B528 phases=1 bus1=B528.4 bus2=B528.0 r=10.0 x=0.0
new reactor.loadbusgrounding_B237 phases=1 bus1=B237.4 bus2=B237.0 r=10.0 x=0.0
new reactor.loadbusgrounding_B2592 phases=1 bus1=B2592.4 bus2=B2592.0 r=10.0 x=0.0
new reactor.loadbusgrounding_B2137 phases=1 bus1=B2137.4 bus2=B2137.0 r=10.0 x=0.0
new reactor.loadbusgrounding_B1855 phases=1 bus1=B1855.4 bus2=B1855.0 r=10.0 x=0.0
new reactor.loadbusgrounding_B3292 phases=1 bus1=B3292.4 bus2=B3292.0 r=10.0 x=0.0
new reactor.loadbusgrounding_B3385 phases=1 bus1=B3385.4 bus2=B3385.0 r=10.0 x=0.0
new reactor.loadbusgrounding_B1315 phases=1 bus1=B1315.4 bus2=B1315.0 r=10.0 x=0.0
new reactor.loadbusgrounding_B1837 phases=1 bus1=B1837.4 bus2=B1837.0 r=10.0 x=0.0
new reactor.loadbusgrounding_B162 phases=1 bus1=B162.4 bus2=B162.0 r=10.0 x=0.0
new reactor.loadbusgrounding_B553 phases=1 bus1=B553.4 bus2=B553.0 r=10.0 x=0.0
new reactor.loadbusgrounding_B1643 phases=1 bus1=B1643.4 bus2=B1643.0 r=10.0 x=0.0
new reactor.loadbusgrounding_B1226 phases=1 bus1=B1226.4 bus2=B1226.0 r=10.0 x=0.0
new reactor.loadbusgrounding_B941 phases=1 bus1=B941.4 bus2=B941.0 r=10.0 x=0.0
